*SPEF "IEEE 1481-1998" //awer

// 

//awerarewar

// awejrioat

*DESIGN "simple" 

//a12415

//  brrtawt
*DATE "Tue Sep 25 11:51:50 2012"
*VENDOR "TAU 2015 Contest" "ABC"
*PROGRAM "Benchmark Parasitic Generator"
*VERSION "0.0"
*DESIGN_FLOW "NETLIST_TYPE_VERILOG"
*DIVIDER / 
*DELIMITER :
*BUS_DELIMITER [  ]  
*T_UNIT 1 PS
*C_UNIT 1 FF
*R_UNIT 1 KOHM
*L_UNIT 1 UH

// This is comment 1

// This is comment 2


// This is comment 3
// This is comment 4
// This is comment 5


*NAME_MAP   

*509 F_C_EP2
//*510 F_A_EP2

*PORTS

*5490 I *S 201.888 99.36

*5486 I *C 201.888 99.36
*5500 B *L 201.888 
*7744 O 



*D_NET inp1 5.4
*CONN
*CAP
1 inp1 1.2
2 inp1:1 1.3
3 inp1:2 1.4
4 u1:A 1.5
*RES
1 inp1 inp1:1 3.4
2 inp1:1 inp1:2 3.5
3 inp1:2 u1:A 3.6
*END 

*D_NET inp2 2.0
*CONN
*P inp2 I
*I GG I *C 28.836 94.5 *L 0.000436 *D DFFHQNx1_ASAP7_75t_SL
*I GG2 I *L 0.000436 *D DFFHQNx1_ASAP7_75t_SL
*I GG3 I *D DFFHQNx1_ASAP7_75t_SL
*I GG4 I *D DFFHQNx1_ASAP7_75t_SL *L 0.000436
*I u1:B I
*CAP
1 inp2 0.2
2 inp2:1 0.5
3 inp2:2 0.4
4 u1:B 0.9
*RES
1 inp2 inp2:1 1.4
2 inp2:1 inp2:2 1.5
3 inp2:2 u1:B 1.6
*END

*D_NET n1 1.0
*CONN
*I u1:Y O
*I u4:A I
*CAP
1 u1:Y 0.2
1 n1:1 0.3
2 u4:A 0.5
*RES
1 u1:Y n1:1 1.1
2 n1:1 u4:A 1.0
*END

